Circuit: * Z:\home\lucas\win\Users\Lucas\Desktop\ifsc\powerEletronics\Flyback\simulation\28c45_test.asc

u1:v3: Missing value, assumed 0V @ DC
Per .tran options, skipping operating point for transient analysis.
Changing Tseed to 3.90625e-010
Changing Tseed to 3.90625e-012
Changing Tseed to 3.90625e-009
Changing Tseed to 3.90625e-013
Changing Tseed to 3.90625e-008
Changing Tseed to 3.90625e-014
Changing Tseed to 3.90625e-007
Changing Tseed to 3.90625e-015
Changing Tseed to 3.90625e-006
Changing Tseed to 3.90625e-016
Changing Tseed to 3.90625e-005
Changing Tseed to 3.90625e-017
Heightened Def Con from 0 Changing Tseed to 1e-009
Changing Tseed to 1e-011
Changing Tseed to 1e-008
Changing Tseed to 1e-012
Changing Tseed to 1e-007
Changing Tseed to 1e-013
Changing Tseed to 1e-006
Changing Tseed to 1e-014
Changing Tseed to 1e-005
Changing Tseed to 1e-015
Changing Tseed to 0.0001
Changing Tseed to 1e-016
+Changing Tseed to 1e-009
Changing Tseed to 1e-011
Changing Tseed to 1e-008
Changing Tseed to 1e-012
Changing Tseed to 1e-007
Changing Tseed to 1e-013
Changing Tseed to 1e-006
Changing Tseed to 1e-014
Changing Tseed to 1e-005
Changing Tseed to 1e-015
Changing Tseed to 0.0001
Changing Tseed to 1e-016
+Changing Tseed to 1e-009
Changing Tseed to 1e-011
Changing Tseed to 1e-008
Changing Tseed to 1e-012
Changing Tseed to 1e-007
Changing Tseed to 1e-013
Changing Tseed to 1e-006
Changing Tseed to 1e-014
Changing Tseed to 1e-005
Changing Tseed to 1e-015
Changing Tseed to 0.0001
Changing Tseed to 1e-016
+Changing Tseed to 1e-009
Changing Tseed to 1e-011
Changing Tseed to 1e-008
Changing Tseed to 1e-012
Changing Tseed to 1e-007
Changing Tseed to 1e-013
Changing Tseed to 1e-006
Changing Tseed to 1e-014
Changing Tseed to 1e-005
Changing Tseed to 1e-015
Changing Tseed to 0.0001
Changing Tseed to 1e-016
+Changing Tseed to 1e-009
Changing Tseed to 1e-011
Changing Tseed to 1e-008
Changing Tseed to 1e-012
Changing Tseed to 1e-007
Changing Tseed to 1e-013
Changing Tseed to 1e-006
Changing Tseed to 1e-014
Changing Tseed to 1e-005
Changing Tseed to 1e-015
Changing Tseed to 0.0001
Changing Tseed to 1e-016
+Changing Tseed to 1e-009
Changing Tseed to 1e-011
Changing Tseed to 1e-008
Changing Tseed to 1e-012
Changing Tseed to 1e-007
Changing Tseed to 1e-013
Changing Tseed to 1e-006
Changing Tseed to 1e-014
Changing Tseed to 1e-005
Changing Tseed to 1e-015
Changing Tseed to 0.0001
Changing Tseed to 1e-016
+Changing Tseed to 1e-009
Changing Tseed to 1e-011
Changing Tseed to 1e-008
Changing Tseed to 1e-012
Changing Tseed to 1e-007
Changing Tseed to 1e-013
Changing Tseed to 1e-006
Changing Tseed to 1e-014
Changing Tseed to 1e-005
Changing Tseed to 1e-015
Changing Tseed to 0.0001
Changing Tseed to 1e-016
+Changing Tseed to 1e-009
Changing Tseed to 1e-011
Changing Tseed to 1e-008
Changing Tseed to 1e-012
Changing Tseed to 1e-007
Changing Tseed to 1e-013
Changing Tseed to 1e-006
Changing Tseed to 1e-014
Changing Tseed to 1e-005
Changing Tseed to 1e-015
Changing Tseed to 0.0001
Changing Tseed to 1e-016
+Changing Tseed to 1e-009
Changing Tseed to 1e-011
Changing Tseed to 1e-008
Changing Tseed to 1e-012
Changing Tseed to 1e-007
Changing Tseed to 1e-013
Changing Tseed to 1e-006
Changing Tseed to 1e-014
Changing Tseed to 1e-005
Changing Tseed to 1e-015
Changing Tseed to 0.0001
Changing Tseed to 1e-016
+Changing Tseed to 1e-009
Changing Tseed to 1e-011
Changing Tseed to 1e-008
Changing Tseed to 1e-012
Changing Tseed to 1e-007
Changing Tseed to 1e-013
Changing Tseed to 1e-006
Changing Tseed to 1e-014
Changing Tseed to 1e-005
Changing Tseed to 1e-015
Changing Tseed to 0.0001
Changing Tseed to 1e-016
+Changing Tseed to 1e-009
Changing Tseed to 1e-011
Changing Tseed to 1e-008
Changing Tseed to 1e-012
Changing Tseed to 1e-007
Changing Tseed to 1e-013
Changing Tseed to 1e-006
Changing Tseed to 1e-014
Changing Tseed to 1e-005
Changing Tseed to 1e-015
Changing Tseed to 0.0001
Changing Tseed to 1e-016
+Changing Tseed to 1e-009
Changing Tseed to 1e-011
Changing Tseed to 1e-008
Changing Tseed to 1e-012
Changing Tseed to 1e-007
Changing Tseed to 1e-013
Changing Tseed to 1e-006
Changing Tseed to 1e-014
Changing Tseed to 1e-005
Changing Tseed to 1e-015
Changing Tseed to 0.0001
Changing Tseed to 1e-016
+Changing Tseed to 1e-009
Changing Tseed to 1e-011
Changing Tseed to 1e-008
Changing Tseed to 1e-012
Changing Tseed to 1e-007
Changing Tseed to 1e-013
Changing Tseed to 1e-006
Changing Tseed to 1e-014
Changing Tseed to 1e-005
Changing Tseed to 1e-015
Changing Tseed to 0.0001
Changing Tseed to 1e-016
+Changing Tseed to 1e-009
Changing Tseed to 1e-011
Changing Tseed to 1e-008
Changing Tseed to 1e-012
Changing Tseed to 1e-007
Changing Tseed to 1e-013
Changing Tseed to 1e-006
Changing Tseed to 1e-014
Changing Tseed to 1e-005
Changing Tseed to 1e-015
Changing Tseed to 0.0001
Changing Tseed to 1e-016
+Changing Tseed to 1e-009
Changing Tseed to 1e-011
Changing Tseed to 1e-008
Changing Tseed to 1e-012
Changing Tseed to 1e-007
Changing Tseed to 1e-013
Changing Tseed to 1e-006
Changing Tseed to 1e-014
Changing Tseed to 1e-005
Changing Tseed to 1e-015
Changing Tseed to 0.0001
Changing Tseed to 1e-016
+Changing Tseed to 1e-009
Changing Tseed to 1e-011
Changing Tseed to 1e-008
Changing Tseed to 1e-012
Changing Tseed to 1e-007
Changing Tseed to 1e-013
Changing Tseed to 1e-006
Changing Tseed to 1e-014
Changing Tseed to 1e-005
Changing Tseed to 1e-015
Changing Tseed to 0.0001
Changing Tseed to 1e-016
+Changing Tseed to 1e-009
Changing Tseed to 1e-011
Changing Tseed to 1e-008
Changing Tseed to 1e-012
Changing Tseed to 1e-007
Changing Tseed to 1e-013
Changing Tseed to 1e-006
Changing Tseed to 1e-014
Changing Tseed to 1e-005
Changing Tseed to 1e-015
Changing Tseed to 0.0001
Changing Tseed to 1e-016
+Changing Tseed to 1e-009
Changing Tseed to 1e-011
Changing Tseed to 1e-008
Changing Tseed to 1e-012
Changing Tseed to 1e-007
Changing Tseed to 1e-013
Changing Tseed to 1e-006
Changing Tseed to 1e-014
Changing Tseed to 1e-005
Changing Tseed to 1e-015
Changing Tseed to 0.0001
Changing Tseed to 1e-016
+Changing Tseed to 1e-009
Changing Tseed to 1e-011
Changing Tseed to 1e-008
Changing Tseed to 1e-012
Changing Tseed to 1e-007
Changing Tseed to 1e-013
Changing Tseed to 1e-006
Changing Tseed to 1e-014
Changing Tseed to 1e-005
Changing Tseed to 1e-015
Changing Tseed to 0.0001
Changing Tseed to 1e-016
+Changing Tseed to 1e-009
Changing Tseed to 1e-011
Changing Tseed to 1e-008
Changing Tseed to 1e-012
Changing Tseed to 1e-007
Changing Tseed to 1e-013
Changing Tseed to 1e-006
Changing Tseed to 1e-014
Changing Tseed to 1e-005
Changing Tseed to 1e-015
Changing Tseed to 0.0001
Changing Tseed to 1e-016
+to 1.125e-010

Date: Thu Jun 06 09:07:11 2019
Total elapsed time: 0.213 seconds.

tnom = 27
temp = 27
method = modified trap
totiter = 6182
traniter = 6182
tranpoints = 1579
accept = 1235
rejected = 113
matrix size = 93
fillins = 84
solver = Normal
Thread vector: 12.2/8.9[2] 3.8/3.3[2] 5.3/3.8[2] 0.7/1.7[1]  2592/500
Matrix Compiler1: 6.90 KB object code size  3.1/1.5/[1.0]
Matrix Compiler2: 7.71 KB object code size  1.2/1.7/[0.9]

