Circuit: * Z:\home\lucas\win\Users\Lucas\Desktop\ifsc\powerEletronics\Flyback\simulation\Draft2.asc

Fatal Error: B1:
-- Syntax Error --
f(.«.».)
